LTspice 26.0.1 for Windows
Circuit: C:\Users\zuzic\Downloads\Lab4\INVERTERTEST2.spi
Start Time: Mon Mar  9 22:18:38 2026
Ignoring BSIM parameter XL
Ignoring BSIM parameter XW
Ignoring BSIM parameter XL
Ignoring BSIM parameter XW

.step x=1e-15
solver = Normal
Maximum thread count: 24
tnom = 27
temp = 27
method = trap
Warning: Pd = 0 is less than W.
Warning: Ps = 0 is less than W.
Warning: Pd = 0 is less than W.
Warning: Ps = 0 is less than W.
Warning: Pd = 0 is less than W.
Warning: Ps = 0 is less than W.
Warning: Pd = 0 is less than W.
Warning: Ps = 0 is less than W.
Direct Newton iteration succeeded in finding operating point.

.step x=1e-14
Direct Newton iteration succeeded in finding operating point.

.step x=1e-13
Direct Newton iteration succeeded in finding operating point.
Total elapsed time: 0.452 seconds.

Files loaded:
C:\Users\zuzic\Downloads\Lab4\INVERTERTEST2.spi
C:\Users\zuzic\Downloads\Lab4\C5_models.txt

