LTspice 26.0.1 for Windows
Circuit: C:\Users\zuzic\Downloads\Lab4\INVERTERTEST.spi
Start Time: Mon Mar  9 22:11:07 2026
Ignoring BSIM parameter XL
Ignoring BSIM parameter XW
Ignoring BSIM parameter XL
Ignoring BSIM parameter XW
solver = Normal
Maximum thread count: 24
tnom = 27
temp = 27
method = trap
Warning: Pd = 0 is less than W.
Warning: Ps = 0 is less than W.
Warning: Pd = 0 is less than W.
Warning: Ps = 0 is less than W.
Warning: Pd = 0 is less than W.
Warning: Ps = 0 is less than W.
Warning: Pd = 0 is less than W.
Warning: Ps = 0 is less than W.
Total elapsed time: 0.188 seconds.

Files loaded:
C:\Users\zuzic\Downloads\Lab4\INVERTERTEST.spi
C:\Users\zuzic\Downloads\Lab4\C5_models.txt

