LTspice 26.0.1 for Windows
Circuit: C:\Users\zuzic\Downloads\Lab4\NOT_GATE.spi
Start Time: Mon Mar  9 21:41:31 2026
Ignoring BSIM parameter XL
Ignoring BSIM parameter XW
Ignoring BSIM parameter XL
Ignoring BSIM parameter XW
solver = Normal
Maximum thread count: 24
tnom = 27
temp = 27
method = trap
WARNING: Node net@11 is floating.

Total elapsed time: 0.273 seconds.

Files loaded:
C:\Users\zuzic\Downloads\Lab4\NOT_GATE.spi
C:\Users\zuzic\Downloads\Lab4\C5_models.txt

