LTspice 26.0.1 for Windows
Circuit: C:\Users\zuzic\Downloads\Lab4\NOT_GATE2.spi
Start Time: Mon Mar  9 21:54:43 2026
Ignoring BSIM parameter XL
Ignoring BSIM parameter XW
Ignoring BSIM parameter XL
Ignoring BSIM parameter XW
solver = Normal
Maximum thread count: 24
tnom = 27
temp = 27
method = trap
Warning: Ps = 1.32e-05 is less than W.
Total elapsed time: 0.204 seconds.

Files loaded:
C:\Users\zuzic\Downloads\Lab4\NOT_GATE2.spi
C:\Users\zuzic\Downloads\Lab4\C5_models.txt

